*Heading
** Job name: 2024-03-04_WingBox-Demonstrator_15m Model name: Model-1
** Generated by: Abaqus/CAE 2023
*Preprint, echo=NO, model=NO, history=NO, contact=NO
**
** PARTS
**
*Part, name=WingBox
*Node
      1,       12000.,   289.419159,           0.
      2,       12000.,   289.419159,         600.
      3,       12000.,  -721.781494,         600.
      4,       12000.,  -721.781494,           0.
      5,       15000.,  -984.247437,         600.
      6,       15000.,  -514.428406,         600.
      7,        8000.,   1361.21594,           0.
      8,        8000.,   1361.21594,         600.
      9,       15000.,  -984.247437,           0.
     10,       15000.,  -514.428406,           0.
     11,        8000.,  -371.826813,         600.
     12,        8000.,  -371.826813,           0.
     13,        6000.,  -196.849487,         600.
     14,        6000.,  -196.849487,           0.
     15,        6000.,   1897.11426,         600.
     16,        6000.,   1897.11426,           0.
     17,        3750.,        2500.,           0.
     18,        3750.,        2500.,         600.
     19,        3750.,           0.,           0.
     20,        3750.,           0.,         600.
** ... 6072 like lines cut
*Element, type=S4R
 1,   1,  25, 821,  58
 2,  25,  26, 822, 821
 3,  26,  27, 823, 822
 4,  27,  28, 824, 823
 5,  28,  29, 825, 824
 6,  29,   2,  30, 825
 7,  58, 821, 826,  57
 8, 821, 822, 827, 826
 9, 822, 823, 828, 827
10, 823, 824, 829, 828
11, 824, 825, 830, 829
12, 825,  30,  31, 830
13,  57, 826, 831,  56
14, 826, 827, 832, 831
15, 827, 828, 833, 832
16, 828, 829, 834, 833
17, 829, 830, 835, 834
18, 830,  31,  32, 835
19,  56, 831, 836,  55
20, 831, 832, 837, 836
** ... 6106 like lines cut
*Nset, nset=Set-Section_WingBox, generate
    1,  6092,     1
*Elset, elset=Set-Section_WingBox, generate
    1,  6126,     1
** Section: Section-WingBox
*Shell Section, elset=Set-Section_WingBox, material=Aluminium, section integration=GAUSS
3.5, 3
*End Part
**  
**
** ASSEMBLY
**
*Assembly, name=Assembly
**  
*Instance, name=WingBox-1, part=WingBox
*End Instance
**  
*Node
      1,        -300.,        1250.,         300.
*Node
      2,       15000.,        -700.,        2500.
*Nset, nset=Clamp-Set
 1,
*Nset, nset=Load-Point-Set
 2,
*Nset, nset=p_Set-Clamp, instance=WingBox-1
  21,  22,  23,  24, 607, 608, 609, 610, 611, 755, 756, 757, 758, 759, 760, 761
 762, 763, 764, 765, 766, 767, 768, 769, 770, 771, 772, 773, 774, 775, 776, 777
 778, 816, 817, 818, 819, 820
*Elset, elset=p_Set-Clamp, instance=WingBox-1
 3667, 3668, 3669, 3670, 3671, 3672, 4785, 4823, 4861, 4899, 4937, 4975, 5013, 5051, 5089, 5127
 5165, 5203, 5241, 5279, 5280, 5281, 5282, 5283, 5284, 5285, 5286, 5287, 5288, 5289, 5290, 5291
 5773, 5774, 5775, 5776, 5777, 5778
*Nset, nset=p_Set-Load, instance=WingBox-1
   5,   6,  89,  90,  91,  92,  93,  94,  95,  96,  97,  98,  99, 100
*Elset, elset=p_Set-Load, instance=WingBox-1, generate
 469,  481,    1
*Nset, nset=_PickedSet7, internal
 2,
*Nset, nset=_PickedSet9, internal
 1,
** Constraint: RigidBody-Clamp
*Rigid Body, ref node=_PickedSet9, pin nset=p_Set-Clamp
** Constraint: RigidBody-Load
*Rigid Body, ref node=_PickedSet7, pin nset=p_Set-Load
*End Assembly
** 
** MATERIALS
** 
*Material, name=Aluminium
*Density
 0.0027,
*Elastic
70000., 0.34
** ----------------------------------------------------------------
** 
** STEP: Load-Step
** 
*Step, name=Load-Step, nlgeom=NO
*Static
1., 1., 1e-05, 1.
** 
** BOUNDARY CONDITIONS
** 
** Name: BC-Clamped-End Type: Displacement/Rotation
*Boundary
Clamp-Set, 1, 1
Clamp-Set, 2, 2
Clamp-Set, 3, 3
Clamp-Set, 4, 4
Clamp-Set, 5, 5
Clamp-Set, 6, 6
** Name: Load-Displacement Type: Displacement/Rotation
*Boundary
Load-Point-Set, 3, 3, 1000.
** 
** OUTPUT REQUESTS
** 
*Restart, write, frequency=0
** 
** FIELD OUTPUT: F-Output-1
** 
*Output, field, variable=PRESELECT
** 
** HISTORY OUTPUT: H-Output-1
** 
*Output, history, variable=PRESELECT
*End Step
